Questionable use of curly braces in "b1 n001 0  v={(floor((v(vin)/{vrange_in})*{nlevels})/{nlevels})*{vrange_out_max}+{vrange_out_min}}"
    Error: undefined symbol in: "(floor(([v](vin)/(vrange_in))*(nlevels))/(nlevels))*(vrange_out_max)+(vrange_out_min)"
LTspice 24.0.12 for Windows
Circuit: * C:\Users\rolando\OneDrive - Imperial College London\EE3\Instrumentation\Coursework 2\complex_Z_meter\spice_sim\schematics\DAC.asc
Start Time: Mon Feb 17 00:07:23 2025
solver = Normal
Maximum thread count: 16
tnom = 27
temp = 27
method = modified trap
WARNING: Less than two connections to node n002.  This node is used by v1.
WARNING: Less than two connections to node vdac.  This node is used by r1.
Direct Newton iteration for .op point succeeded.
Total elapsed time: 0.620 seconds.

