Questionable use of curly braces in "b1 vadc 0  v={(floor((v(vin)/{vref})*{nlevels})/{nlevels})*{vrange_out}}"
    Error: undefined symbol in: "(floor(([v](vin)/(vref))*(nlevels))/(nlevels))*(vrange_out)"
LTspice 24.0.12 for Windows
Circuit: * C:\Users\rolando\OneDrive - Imperial College London\EE3\Instrumentation\Coursework 2\complex_Z_meter\spice_sim\schematics\adc.asc
Start Time: Mon Feb 17 16:12:16 2025
solver = Normal
Maximum thread count: 8
tnom = 27
temp = 27
method = modified trap
WARNING: Less than two connections to node vadc.  This node is used by b1.
Direct Newton iteration for .op point succeeded.
Total elapsed time: 0.060 seconds.

