Questionable use of curly braces in "b1 vdac 0  v={(floor((v(vin)/{vrange_in})*{nlevels})/{nlevels})*{vrange_out_max}+{vrange_out_min}}"
    Error: undefined symbol in: "(floor(([v](vin)/(vrange_in))*(nlevels))/(nlevels))*(vrange_out_max)+(vrange_out_min)"
LTspice 24.0.12 for Windows
Circuit: * C:\Users\rolando\OneDrive - Imperial College London\EE3\Instrumentation\Coursework 2\complex_Z_meter\spice_sim\IV_METHOD\Draft1.asc
Start Time: Sun Feb 16 22:33:20 2025
solver = Normal
Maximum thread count: 16
tnom = 27
temp = 27
method = modified trap
Direct Newton iteration for .op point succeeded.
Total elapsed time: 0.611 seconds.

