Questionable use of curly braces in "b§dac vdac_old 0  v={floor(v(vin)/{vrange}*{nlevels})/{nlevels}*{vrange}}"
    Error: undefined symbol in: "floor([v](vin)/(vrange)*(nlevels))/(nlevels)*(vrange)"
LTspice 24.0.12 for Windows
Circuit: * C:\Users\rolando\OneDrive - Imperial College London\EE3\Instrumentation\Coursework 2\complex_Z_meter\spice_sim\IV_METHOD\IV.asc
Start Time: Sun Feb 16 20:14:59 2025
solver = Normal
Maximum thread count: 16
tnom = 27
temp = 27
method = modified trap
WARNING: Less than two connections to node vdac_old.  This node is used by dac.
WARNING: Less than two connections to node n003.  This node is used by l1.
Direct Newton iteration for .op point succeeded.


Measurement "ideal_output" FAIL'ed

Measurement "real_read_output" FAIL'ed

Total elapsed time: 0.183 seconds.

