LTspice 24.0.12 for Windows
Circuit: * C:\Users\ogahe\OneDrive\Documents\!IMPERIAL\YEAR3\INSTR\CW2_INSTR\spice_sim\IV_METHOD\IV_non_ideal_attempt.asc
Start Time: Thu Feb 13 11:56:06 2025
solver = Normal
Maximum thread count: 8
tnom = 27
temp = 27
method = modified trap
WARNING: Less than two connections to node vadc1.  This node is used by r9.
Direct Newton iteration failed to find .op point.  (Use ".option noopiter" to skip.)
Starting Gmin stepping
Gmin = 10
Gmin = 1.07374
Gmin = 0.115292
Gmin = 0.0123794
Gmin = 0.00132923
Gmin = 0.000142725
Gmin = 1.5325e-05
Gmin = 1.6455e-06
vernier = 0.5
vernier = 0.25
Gmin = 9.18165e-07
vernier = 0.333333
vernier = 0.444444
Gmin = 3.89715e-07
vernier = 0.592592
vernier = 0.790123
Gmin = 1.03562e-07
vernier = 1
vernier = 0.5
vernier = 0.25
vernier = 0.125
Gmin = 3.36401e-08
vernier = 0.0625
vernier = 0.0833333
vernier = 0.0416667
vernier = 0.0208333
vernier = 0.0104167
Gmin = 3.11308e-08
vernier = 0.00520833
vernier = 0.00260417
vernier = 0.00347222
Gmin = 3.0949e-08
vernier = 0.00462963
vernier = 0.00617283
Gmin = 3.06078e-08
vernier = 0.00823044
Gmin = 3.00622e-08
vernier = 0.0109739
vernier = 0.0146319
Gmin = 2.91898e-08
vernier = 0.0195092
vernier = 0.0260122
Gmin = 2.786e-08
vernier = 0.034683
Gmin = 2.5832e-08
vernier = 0.046244
vernier = 0.023122
vernier = 0.011561
vernier = 0.00578049
vernier = 0.00289025
vernier = 0.00144512
vernier = 0.000722562
vernier = 0.000541921
vernier = 0.000406441
Gmin = 2.561e-08
Gmin = 0
Gmin stepping failed

Starting source stepping with srcstepmethod=0
Source Step = 3.0303%
Source Step = 33.3333%
Source Step = 63.6364%
vernier = 0.25
Source Step = 60.6238%
Source Step = 60.6534%
Source Step = 60.683%
Source Step = 60.7126%
Source Step = 60.7422%
vernier = 0.00146484
Source Step = 60.7762%
Source Step = 60.8206%
Source Step = 60.865%
Source Step = 60.9094%
Source Step = 60.9538%
vernier = 0.00219727
Source Step = 61.0026%
Source Step = 61.0692%
Source Step = 61.1358%
Source Step = 61.2024%
Source Step = 61.2689%
vernier = 0.0032959
Source Step = 61.3389%
Source Step = 61.4387%
Source Step = 61.5386%
Source Step = 61.6385%
Source Step = 61.7384%
Source Step = 61.8382%
vernier = 0.00494385
Source Step = 61.988%
Source Step = 62.1379%
Source Step = 62.2877%
Source Step = 62.4375%
Source Step = 62.5873%
vernier = 0.00741577
Source Step = 62.6472%
Source Step = 62.7034%
Source Step = 62.7596%
Source Step = 62.8158%
Source Step = 62.8719%
vernier = 0.00278091
Source Step = 62.9478%
Source Step = 63.0321%
Source Step = 63.1163%
Source Step = 63.2006%
Source Step = 63.2849%
vernier = 0.00417137
Source Step = 63.3944%
Source Step = 63.5208%
Source Step = 63.6472%
Source Step = 63.7736%
Source Step = 63.9%
vernier = 0.00625706
Source Step = 63.9822%
Source Step = 64.0296%
Source Step = 64.077%
Source Step = 64.1244%
Source Step = 64.1718%
vernier = 0.0023464
Source Step = 64.2263%
Source Step = 64.2974%
Source Step = 64.3685%
Source Step = 64.4396%
Source Step = 64.5107%
vernier = 0.00351959
Source Step = 64.5889%
Source Step = 64.6956%
Source Step = 64.8023%
Source Step = 64.9089%
Source Step = 65.0156%
vernier = 0.00527939
Source Step = 65.1276%
Source Step = 65.2875%
Source Step = 65.4475%
Source Step = 65.6075%
Source Step = 65.7675%
Source Step = 65.9275%
vernier = 0.00791909
Source Step = 66.1674%
Source Step = 66.4074%
Source Step = 66.6474%
Source Step = 66.8874%
Source Step = 67.1273%
vernier = 0.0118786
Source Step = 67.4753%
Source Step = 67.8352%
Source Step = 68.1952%
Source Step = 68.5552%
Source Step = 68.9151%
vernier = 0.0178179
Source Step = 69.4191%
Source Step = 69.959%
Source Step = 70.4989%
Source Step = 71.0389%
Source Step = 71.5788%
vernier = 0.0267269
Source Step = 72.3077%
Source Step = 73.1176%
Source Step = 73.9275%
Source Step = 74.7374%
Source Step = 75.5474%
vernier = 0.0400904
Source Step = 76.6002%
Source Step = 77.8151%
Source Step = 79.03%
Source Step = 80.2448%
Source Step = 81.4597%
vernier = 0.0601356
Source Step = 82.9782%
Source Step = 84.8005%
Source Step = 86.6228%
Source Step = 88.4451%
Source Step = 90.2674%
vernier = 0.0902034
Source Step = 92.4542%
Source Step = 95.1876%
Source Step = 97.921%
Source stepping succeeded in finding the operating point.

Total elapsed time: 1.395 seconds.

