LTspice 24.0.12 for Windows
Circuit: * C:\Users\rolando\OneDrive - Imperial College London\EE3\Instrumentation\Coursework 2\complex_Z_meter\spice_sim\IV_METHOD\IV_real.asc
Start Time: Sun Feb 16 23:10:16 2025
solver = Normal
Maximum thread count: 16
tnom = 27
temp = 27
method = modified trap
WARNING: Less than two connections to node n003.  This node is used by l1.
Direct Newton iteration failed to find .op point.  (Use ".option noopiter" to skip.)
Starting Gmin stepping
Gmin = 10
Gmin = 1.07374
Gmin = 0.115292
Gmin = 0.0123794
Gmin = 0.00132923
Gmin = 0.000142725
vernier = 0.5
Gmin = 2.39452e-05
vernier = 0.25
vernier = 0.125
vernier = 0.0625
vernier = 0.03125
vernier = 0.015625
vernier = 0.0078125
vernier = 0.00390625
vernier = 0.00195312
vernier = 0.000976562
vernier = 0.000488281
Gmin = 2.39452e-05
Gmin = 0
Gmin stepping failed

Starting source stepping with srcstepmethod=0
Source Step = 3.0303%
Source Step = 23.4848%
Source Step = 31.0606%
Source Step = 38.6364%
Source Step = 46.2121%
Source Step = 53.7879%
vernier = 0.375
Source Step = 62.1212%
Source Step = 67.1638%
Source Step = 67.8741%
Source Step = 68.5843%
Source Step = 69.2945%
Source Step = 70.0047%
vernier = 0.0351562
Source Step = 70.786%
Source Step = 71.8513%
Source Step = 72.9167%
Source Step = 73.982%
Source Step = 75.0473%
vernier = 0.0527344
Source Step = 76.166%
Source Step = 77.764%
Source Step = 79.362%
Source Step = 80.96%
Source Step = 82.558%
Source Step = 84.156%
vernier = 0.0791016
Source Step = 86.553%
Source Step = 88.95%
Source Step = 91.3471%
Source Step = 93.7441%
Source Step = 96.1411%
vernier = 0.118652
Source Step = 99.6168%
Source stepping succeeded in finding the operating point.



Measurement "ideal_output" FAIL'ed

Measurement "real_read_output" FAIL'ed

Total elapsed time: 0.228 seconds.

