LTspice 24.0.12 for Windows
Circuit: * C:\Users\rolando\OneDrive - Imperial College London\EE3\Instrumentation\Coursework 2\complex_Z_meter\spice_sim\schematics\IV_real.asc
Start Time: Mon Feb 17 18:23:07 2025
solver = Normal
Maximum thread count: 8



Direct Newton iteration for .op point succeeded.
.step rref=100 freq=100



.step rref=5000 freq=100



.step rref=100000 freq=100



.step rref=100 freq=1000



.step rref=5000 freq=1000



.step rref=100000 freq=1000



.step rref=100 freq=10000



.step rref=5000 freq=10000



.step rref=100000 freq=10000



.step rref=100 freq=100000



.step rref=5000 freq=100000
tnom = 27
temp = 27
method = modified trap
.step rref=100000 freq=100000


Total elapsed time: 87.127 seconds.

