LTspice 24.0.12 for Windows
Circuit: *$
Start Time: Wed Feb  5 14:03:36 2025
Fatal Error: No analysis request found.
